Version 4
SHEET 1 1148 704
WIRE 640 -48 592 -48
WIRE 528 -32 432 -32
WIRE 528 16 528 -32
WIRE 544 16 528 16
WIRE 528 144 176 144
WIRE 176 272 176 144
WIRE 272 272 176 272
WIRE 640 272 640 256
WIRE 640 272 496 272
WIRE 640 288 640 272
WIRE 272 336 144 336
WIRE 528 336 528 144
WIRE 528 336 496 336
WIRE 144 352 144 336
WIRE 528 368 528 336
WIRE 640 368 528 368
WIRE 640 384 640 368
WIRE 544 400 496 400
WIRE 608 400 544 400
WIRE 544 432 544 400
WIRE 640 496 640 448
WIRE 608 544 608 400
FLAG -240 160 v+
FLAG 496 208 v+
FLAG 272 400 v+
FLAG -240 240 0
FLAG 272 208 0
FLAG 544 496 0
FLAG 640 496 0
FLAG 144 432 0
FLAG 592 48 v+
FLAG 432 48 0
FLAG 640 176 v+
FLAG 608 624 0
SYMBOL Misc/NE555 384 304 R0
SYMATTR InstName U1
SYMBOL voltage -240 144 R0
SYMATTR InstName V1
SYMATTR Value 9
SYMBOL cap 528 432 R0
SYMATTR InstName C1
SYMATTR Value .01µ
SYMBOL cap 624 384 R0
SYMATTR InstName C2
SYMATTR Value 660p
SYMBOL res 128 336 R0
SYMATTR InstName R3
SYMATTR Value 10k
SYMBOL res 624 272 R0
SYMATTR InstName R2
SYMATTR Value 6.8k
SYMBOL res 624 160 R0
SYMATTR InstName R1
SYMATTR Value 56k
SYMBOL voltage 432 -48 R0
SYMATTR InstName V2
SYMATTR Value PULSE(0 9 0 0 0 .05u .1u)
SYMBOL njf 544 -48 R0
SYMATTR InstName J1
SYMATTR Value J111
SYMBOL voltage 608 528 R0
SYMATTR InstName V3
SYMATTR Value 0.5
TEXT -48 88 Left 2 !# .step param CV 0.5 8.5 8\n.tran 100u
