Version 4
SHEET 1 880 680
WIRE 656 176 240 176
WIRE -176 288 -176 272
WIRE -176 288 -224 288
WIRE 240 288 240 256
WIRE 240 288 144 288
WIRE 288 288 240 288
WIRE -224 304 -224 288
WIRE -176 304 -176 288
WIRE 480 320 480 304
WIRE 528 352 512 352
WIRE 560 352 528 352
WIRE 656 384 656 176
WIRE 656 384 624 384
WIRE 256 416 128 416
WIRE 288 416 256 416
WIRE 528 416 528 352
WIRE 624 416 624 384
WIRE 224 432 176 432
WIRE 256 432 256 416
WIRE 288 480 288 416
WIRE 528 480 288 480
WIRE 128 496 128 416
WIRE 176 496 128 496
WIRE 224 496 224 432
WIRE 256 496 224 496
WIRE 224 512 224 496
FLAG -176 192 v+
FLAG 384 288 v+
FLAG 480 224 v+
FLAG -176 384 v-
FLAG 384 416 v-
FLAG 624 496 v-
FLAG -224 304 0
FLAG 144 368 0
FLAG 224 512 0
SYMBOL deanm1278_LM13700-spice-model/LM13700 352 272 R0
SYMATTR InstName U1
SYMBOL res 128 272 R0
SYMATTR InstName R1
SYMATTR Value 2k
SYMBOL res 224 160 R0
SYMATTR InstName R2
SYMATTR Value 10k
SYMBOL res 464 208 R0
SYMATTR InstName R3
SYMATTR Value {R}
SYMBOL res 608 400 R0
SYMATTR InstName R4
SYMATTR Value 5.1k
SYMBOL voltage -176 176 R0
SYMATTR InstName V1
SYMATTR Value 15
SYMBOL voltage -176 288 R0
SYMATTR InstName V2
SYMATTR Value 15
SYMBOL diode 240 432 R0
SYMATTR InstName D1
SYMBOL diode 160 432 R0
SYMATTR InstName D2
SYMBOL cap 512 416 R0
SYMATTR InstName C1
SYMATTR Value .05µ
TEXT 8 136 Left 2 !.step param R 30K 130K 50K\n.tran 10m UIC
