Version 4
SHEET 1 1124 680
WIRE 160 48 80 48
WIRE 160 160 160 128
WIRE 256 160 160 160
WIRE -224 176 -224 160
WIRE -224 176 -256 176
WIRE 160 176 160 160
WIRE -224 192 -224 176
WIRE 480 224 256 224
WIRE 1120 224 896 224
WIRE 256 288 256 224
WIRE 288 288 256 288
WIRE 896 304 896 224
WIRE 896 304 672 304
WIRE 944 304 896 304
WIRE 480 336 480 224
WIRE 480 336 448 336
WIRE 512 336 480 336
WIRE 512 352 512 336
WIRE 1120 352 1120 224
WIRE 1120 352 1104 352
WIRE 160 384 160 256
WIRE 288 384 160 384
WIRE 944 400 912 400
WIRE 160 416 160 384
WIRE 592 432 512 432
WIRE 592 464 592 432
WIRE 672 480 672 304
WIRE 592 560 592 544
WIRE 672 560 672 544
WIRE 672 560 592 560
WIRE 592 576 592 560
WIRE 752 656 592 656
WIRE 912 656 912 400
WIRE 912 656 752 656
FLAG -224 80 v+
FLAG 368 272 v+
FLAG 1024 288 v+
FLAG -224 272 v-
FLAG 368 400 v-
FLAG 1024 416 v-
FLAG -256 176 0
FLAG 160 480 0
FLAG 512 496 0
FLAG 752 592 0
FLAG 80 128 0
SYMBOL voltage -224 64 R0
SYMATTR InstName V1
SYMATTR Value 4.5
SYMBOL voltage -224 176 R0
SYMATTR InstName V2
SYMATTR Value 4.5
SYMBOL tl072/tl07x 352 336 R0
SYMATTR InstName U1
SYMBOL tl072/tl07x 1008 352 R0
SYMATTR InstName U2
SYMBOL res 144 160 R0
SYMATTR InstName R1
SYMATTR Value 30k
SYMBOL res 144 32 R0
SYMATTR InstName R2
SYMATTR Value 91k
SYMBOL res 496 336 R0
SYMATTR InstName R3
SYMATTR Value 11k
SYMBOL res 576 448 R0
SYMATTR InstName R4
SYMATTR Value 75k
SYMBOL res 576 560 R0
SYMATTR InstName R5
SYMATTR Value 51k
SYMBOL cap 144 416 R0
SYMATTR InstName C1
SYMATTR Value 470p
SYMBOL cap 240 160 R0
SYMATTR InstName C2
SYMATTR Value 1n
SYMBOL cap 496 432 R0
SYMATTR InstName C3
SYMATTR Value 3.3n
SYMBOL cap 736 592 R0
SYMATTR InstName C4
SYMATTR Value 150p
SYMBOL cap 656 480 R0
SYMATTR InstName C5
SYMATTR Value 2.2n
SYMBOL voltage 80 32 R0
SYMATTR InstName V3
SYMATTR Value SINE(0 .5 1k)
SYMATTR Value2 AC 1
TEXT 152 592 Left 2 !.ac dec 20 20k 20\n# .tran 10m
