Version 4
SHEET 1 964 1028
WIRE 144 -208 64 -208
WIRE 224 -128 144 -128
WIRE 320 16 224 16
WIRE 320 48 320 16
WIRE 320 160 320 128
WIRE 384 160 320 160
WIRE -240 240 -240 224
WIRE -240 240 -272 240
WIRE 864 240 464 240
WIRE -240 256 -240 240
WIRE 784 272 560 272
WIRE 384 288 384 240
WIRE 464 288 464 240
WIRE 464 288 384 288
WIRE 784 304 784 272
WIRE 864 304 864 240
WIRE 464 384 464 368
WIRE 560 384 560 272
WIRE 560 384 464 384
WIRE 592 384 560 384
WIRE 784 432 784 368
WIRE 784 432 752 432
WIRE 864 432 864 384
WIRE 864 432 784 432
WIRE 176 512 80 512
WIRE 176 544 176 512
WIRE 176 656 176 624
WIRE 240 656 176 656
WIRE 720 736 320 736
WIRE 640 768 416 768
WIRE 240 784 240 736
WIRE 320 784 320 736
WIRE 320 784 240 784
WIRE 640 800 640 768
WIRE 720 800 720 736
WIRE 320 880 320 864
WIRE 416 880 416 768
WIRE 416 880 320 880
WIRE 448 880 416 880
WIRE 640 928 640 864
WIRE 640 928 608 928
WIRE 720 928 720 880
WIRE 720 928 640 928
FLAG -240 336 v-
FLAG -240 144 v+
FLAG -272 240 0
FLAG 528 992 v-
FLAG 528 864 v+
FLAG 448 976 0
FLAG 240 848 0
FLAG 176 720 0
FLAG 80 592 0
FLAG 672 496 v-
FLAG 672 368 v+
FLAG 592 480 0
FLAG 384 352 0
FLAG 320 224 0
FLAG 64 -128 0
FLAG 224 80 0
FLAG 144 -48 0
SYMBOL voltage -240 128 R0
SYMATTR InstName V1
SYMATTR Value 5
SYMBOL voltage -240 240 R0
SYMATTR InstName V2
SYMATTR Value 5
SYMBOL tl072/tl07x 512 928 R0
SYMATTR InstName U1
SYMBOL res 160 528 R0
SYMATTR InstName R1
SYMATTR Value 56k
SYMBOL res 224 640 R0
SYMATTR InstName R2
SYMATTR Value 56k
SYMBOL res 704 784 R0
SYMATTR InstName R3
SYMATTR Value 120k
SYMBOL res 304 768 R0
SYMATTR InstName R4
SYMATTR Value 33k
SYMBOL cap 624 800 R0
SYMATTR InstName C1
SYMATTR Value 220p
SYMBOL cap 224 784 R0
SYMATTR InstName C2
SYMATTR Value 3300p
SYMBOL cap 160 656 R0
SYMATTR InstName C3
SYMATTR Value 3300p
SYMBOL voltage 80 496 R0
SYMATTR InstName V3
SYMATTR Value ""
SYMATTR Value2 AC 1
SYMBOL tl072/tl07x 656 432 R0
SYMATTR InstName U2
SYMBOL res 304 32 R0
SYMATTR InstName R5
SYMATTR Value 39k
SYMBOL res 368 144 R0
SYMATTR InstName R6
SYMATTR Value 39k
SYMBOL res 848 288 R0
SYMATTR InstName R7
SYMATTR Value 120k
SYMBOL res 448 272 R0
SYMATTR InstName R8
SYMATTR Value 33k
SYMBOL cap 768 304 R0
SYMATTR InstName C4
SYMATTR Value 220p
SYMBOL cap 368 288 R0
SYMATTR InstName C5
SYMATTR Value 2700p
SYMBOL cap 304 160 R0
SYMATTR InstName C6
SYMATTR Value 2200p
SYMBOL voltage 64 -224 R0
SYMATTR InstName V4
SYMATTR Value ""
SYMATTR Value2 AC 1
SYMBOL cap 208 16 R0
SYMATTR InstName C7
SYMATTR Value 1800p
SYMBOL res 208 -80 R0
SYMATTR InstName R9
SYMATTR Value 43k
SYMBOL cap 208 -128 R0
SYMATTR InstName C8
SYMATTR Value 3.3µ
SYMBOL res 128 -144 R0
SYMATTR InstName R10
SYMATTR Value 100k
SYMBOL res 128 -224 R0
SYMATTR InstName R11
SYMATTR Value 5.6k
TEXT -160 448 Left 2 !.ac dec 20 20k 20
TEXT 632 112 Left 2 ;input 3rd order LP @ 2.5K\n5th order LP @ 2.4K\nwith a constant 4K delay clock
